Circuit: * C:\Users\simon\OneDrive\Namizje\school\4. letnik\PZI\PZIp\Draft1.asc

